*NODE 
1, 5.00000000000000e-01, 4.90000000000000e+01, 0.00000000000000e+00 
2, 1.00000000000000e+00, 1.30000000000000e+01, 0.00000000000000e+00 
3, 1.00000000000000e+00, 2.45000000000000e+01, 0.00000000000000e+00 
4, 1.00000000000000e+00, 4.30000000000000e+01, 0.00000000000000e+00 
5, 1.00000000000000e+00, 4.83750000000000e+01, 0.00000000000000e+00 
6, 1.37500000000000e+00, 4.38750000000000e+01, 0.00000000000000e+00 
7, 1.50000000000000e+00, 1.95000000000000e+01, 0.00000000000000e+00 
8, 1.50000000000000e+00, 4.77500000000000e+01, 0.00000000000000e+00 
9, 1.66666666666667e+00, 1.25000000000000e+01, 0.00000000000000e+00 
10, 1.66666666666667e+00, 2.50000000000000e+01, 0.00000000000000e+00 
11, 1.70000000000000e+00, 2.39000000000000e+01, 0.00000000000000e+00 
12, 1.75000000000000e+00, 1.36250000000000e+01, 0.00000000000000e+00 
13, 1.75000000000000e+00, 4.47500000000000e+01, 0.00000000000000e+00 
14, 2.00000000000000e+00, 9.50000000000000e+00, 0.00000000000000e+00 
15, 2.00000000000000e+00, 4.71250000000000e+01, 0.00000000000000e+00 
16, 2.12500000000000e+00, 4.56250000000000e+01, 0.00000000000000e+00 
17, 2.16666666666667e+00, 8.66666666666667e+00, 0.00000000000000e+00 
18, 2.25000000000000e+00, 1.88750000000000e+01, 0.00000000000000e+00 
19, 2.25000000000000e+00, 2.00000000000000e+01, 0.00000000000000e+00 
20, 2.33333333333333e+00, 1.01666666666667e+01, 0.00000000000000e+00 
** ... 804 like lines cut
*NSET, NSET = leftNSET 
2, 3, 4, 6, 7, 9, 10, 11, 
12, 13, 14, 16, 17, 18, 19, 20, 
21, 22, 23, 24, 25, 26, 27, 29, 
30, 31, 32, 33, 34, 35, 36, 37, 
38, 39, 41, 42
*NSET, NSET = rightNSET 
785, 786, 787, 788, 789, 790, 792, 793, 
794, 795, 796, 797, 800, 801, 802, 803, 
805, 806, 809, 810, 811, 812, 813, 814, 
815, 817, 818, 819, 820, 821, 823, 824, 
*NSET, NSET = lowerNSET 
63, 71, 79, 116, 125, 133, 141, 148, 
158, 176, 195, 211, 228, 242, 255, 264, 
346, 361, 375, 378, 392, 394, 407, 419, 
430, 440, 453, 465, 476, 489, 499, 516, 
532, 558, 573, 590, 607, 622, 745, 746, 
747, 748, 791, 798, 799, 804, 807, 808, 
816, 822
*NSET, NSET = upperNSET 
1, 5, 8, 15, 28, 40, 55, 67, 
90, 96, 106, 109, 113, 206, 284, 301, 
321, 329, 335, 345, 358, 373, 388, 404, 
417, 424, 434, 444, 459, 469, 479, 480, 
481, 494, 509, 527, 634, 638, 644, 691, 
701, 712, 727, 736, 740, 750, 757
*ELEMENT, TYPE=B21, ELSET=BeamElem3 
1, 148, 158 
2, 158, 176 
3, 176, 195 
4, 195, 211 
5, 211, 229 
6, 229, 243 
7, 243, 258 
8, 143, 135 
9, 135, 127 
10, 127, 118 
11, 244, 233 
12, 233, 221 
13, 221, 200 
14, 200, 188 
15, 188, 177 
16, 177, 163 
17, 163, 153 
18, 153, 143 
19, 306, 313 
20, 313, 318 
** ... 851 like lines cut
*NORMAL,TYPE=ELEMENT
1, 148, -2.500000, 3.000000, 0.000000 
2, 158, -2.500000, 3.000000, 0.000000 
3, 176, -2.500000, 3.000000, 0.000000 
4, 195, -2.500000, 3.000000, 0.000000 
5, 211, -1.500000, 2.000000, 0.000000 
6, 229, -1.500000, 2.000000, 0.000000 
7, 243, -1.500000, 2.000000, 0.000000 
8, 143, 1.500000, -2.000000, 0.000000 
9, 135, 1.500000, -2.000000, 0.000000 
10, 127, 1.500000, -2.000000, 0.000000 
11, 244, -1.500000, -2.000000, -0.000000 
12, 233, -1.500000, -2.000000, -0.000000 
13, 221, -1.500000, -2.000000, -0.000000 
14, 200, -1.500000, -1.500000, -0.000000 
15, 188, -1.500000, -1.500000, -0.000000 
16, 177, -1.500000, -1.500000, -0.000000 
17, 163, -1.000000, -1.500000, -0.000000 
18, 153, -1.000000, -1.500000, -0.000000 
19, 306, -1.500000, 0.500000, 0.000000 
20, 313, -1.500000, 0.500000, 0.000000 
** ... 851 like lines cut
*BEAM SECTION, ELSET=BeamElem3, MATERIAL=BeamMatl, SECTION=CIRC 
1.0000000e+00 
0.000000, 0.000000, -1.000000 
*MATERIAL, name=BeamMatl 
*Elastic 
1.00000e-04, 4.50000e-01 
*Step, name=Step-3, nlgeom=YES 
*Static, STABILIZE=2.0000e-04
5.00e-02, 1., 1.00e-05, 1.00e+00 
*Boundary 
leftNSET, 1,1,-1.213e+01 
leftNSET, 2,2
leftNSET, 6,6
rightNSET, 1,1,1.213e+01 
rightNSET, 2,2
rightNSET, 6,6
lowerNSET, 2,2,-1.213e+01 
lowerNSET, 1,1
lowerNSET, 6,6
upperNSET, 2,2,1.213e+01 
upperNSET, 1,1
upperNSET, 6,6
*Restart, write, frequency=0 
*Output, history, variable=PRESELECT
*Output, field, variable=PRESELECT
*NODE OUTPUT
U, RF,COORD
*ELEMENT Output
S,SE,SF,SM,SK,COORD
*End Step 
