*NODE 
1, 5.00000000000000e-01, 3.00000000000000e+00, 0.00000000000000e+00 
2, 5.00000000000000e-01, 8.50000000000000e+00, 0.00000000000000e+00 
3, 5.00000000000000e-01, 2.55000000000000e+01, 0.00000000000000e+00 
4, 5.00000000000000e-01, 3.20000000000000e+01, 0.00000000000000e+00 
5, 7.50000000000000e-01, 7.75000000000000e+00, 0.00000000000000e+00 
6, 1.00000000000000e+00, 2.50000000000000e+00, 0.00000000000000e+00 
7, 1.00000000000000e+00, 7.00000000000000e+00, 0.00000000000000e+00 
8, 1.00000000000000e+00, 1.10000000000000e+01, 0.00000000000000e+00 
9, 1.00000000000000e+00, 2.47000000000000e+01, 0.00000000000000e+00 
10, 1.00000000000000e+00, 2.85000000000000e+01, 0.00000000000000e+00 
11, 1.00000000000000e+00, 3.13333333333333e+01, 0.00000000000000e+00 
12, 1.00000000000000e+00, 3.60000000000000e+01, 0.00000000000000e+00 
13, 1.00000000000000e+00, 4.80000000000000e+01, 0.00000000000000e+00 
14, 1.25000000000000e+00, 6.25000000000000e+00, 0.00000000000000e+00 
15, 1.25000000000000e+00, 3.67500000000000e+01, 0.00000000000000e+00 
16, 1.43750000000000e+00, 4.71875000000000e+01, 0.00000000000000e+00 
17, 1.50000000000000e+00, 2.00000000000000e+00, 0.00000000000000e+00 
18, 1.50000000000000e+00, 5.50000000000000e+00, 0.00000000000000e+00 
19, 1.50000000000000e+00, 1.50000000000000e+01, 0.00000000000000e+00 
20, 1.50000000000000e+00, 2.39000000000000e+01, 0.00000000000000e+00 
** ... 867 like lines cut
*NSET, NSET = leftNSET 
2, 3, 4, 5, 7, 8, 9, 10, 
11, 12, 14, 15, 18, 19, 20, 21, 
22, 23, 24, 25, 26, 27, 30, 31, 
32, 33, 34, 35, 36, 37, 38, 39, 
41, 42, 43, 44, 45, 47, 48, 49, 
50, 52, 53, 54, 55, 56, 57, 58, 
59, 60, 61, 62, 63
*NSET, NSET = rightNSET 
820, 821, 822, 823, 824, 825, 826, 827, 
828, 829, 830, 831, 832, 833, 834, 835, 
836, 837, 838, 839, 840, 841, 842, 843, 
844, 845, 846, 847, 848, 849, 850, 851, 
852, 853, 854, 855, 856, 857, 858, 859, 
860, 861, 862, 863, 864, 865, 866, 867, 
868, 869, 870, 871, 872, 873, 874, 875, 
876, 877, 878, 879, 882, 883, 884, 885, 
886, 887
*NSET, NSET = lowerNSET 
1, 6, 17, 29, 40, 46, 51, 69, 
88, 101, 109, 117, 128, 140, 152, 161, 
166, 168, 182, 200, 203, 213, 214, 215, 
232, 237, 250, 260, 271, 280, 291, 293, 
294, 318, 335, 349, 365, 384, 389, 397, 
403, 413, 431, 454, 474, 491, 501, 519, 
542, 548, 637, 665, 690, 706, 717, 724, 
726, 733, 745, 755, 770, 787, 803, 819, 
*NSET, NSET = upperNSET 
13, 16, 28, 145, 155, 165, 178, 183, 
191, 201, 219, 242, 259, 267, 275, 465, 
469, 476, 557, 573, 587, 600, 610, 622, 
636, 653, 676, 698, 710, 723, 735, 752, 
802, 810, 817, 880, 881
*ELEMENT, TYPE=B21, ELSET=BeamElem1 
1, 275, 267 
2, 267, 259 
3, 259, 242 
4, 276, 268 
5, 268, 252 
6, 252, 225 
7, 225, 205 
8, 362, 350 
9, 350, 337 
10, 337, 325 
11, 325, 303 
12, 433, 423 
13, 423, 411 
14, 411, 401 
15, 401, 391 
16, 391, 375 
17, 375, 363 
18, 363, 352 
19, 352, 342 
20, 342, 330 
** ... 921 like lines cut
*NORMAL,TYPE=ELEMENT
1, 275, -1.500000, -2.000000, -0.000000 
2, 267, -1.500000, -2.000000, -0.000000 
3, 259, -1.500000, -2.000000, -0.000000 
4, 276, -0.000000, -4.000000, -0.000000 
5, 268, -0.000000, -4.000000, -0.000000 
6, 252, -0.000000, -4.000000, -0.000000 
7, 225, -0.000000, -4.000000, -0.000000 
8, 362, 1.000000, -3.000000, 0.000000 
9, 350, 1.000000, -3.000000, 0.000000 
10, 337, 1.000000, -3.000000, 0.000000 
11, 325, 1.000000, -3.000000, 0.000000 
12, 433, 2.000000, -2.500000, 0.000000 
13, 423, 2.000000, -2.500000, 0.000000 
14, 411, 2.000000, -2.500000, 0.000000 
15, 401, 2.000000, -2.500000, 0.000000 
16, 391, 2.000000, -3.500000, 0.000000 
17, 375, 2.000000, -3.500000, 0.000000 
18, 363, 2.000000, -3.500000, 0.000000 
19, 352, 2.000000, -3.500000, 0.000000 
20, 342, 2.000000, -3.500000, 0.000000 
** ... 921 like lines cut
*BEAM SECTION, ELSET=BeamElem1, MATERIAL=BeamMatl, SECTION=CIRC 
1.0000000e+00 
0.000000, 0.000000, -1.000000 
*MATERIAL, name=BeamMatl 
*Elastic 
1.00000e-04, 4.50000e-01 
*Step, name=Step-1, nlgeom=YES 
*Static, STABILIZE=2.0000e-04
5.00e-02, 1., 1.00e-05, 1.00e+00 
*Boundary 
leftNSET, 1,1,-1.200e+01 
leftNSET, 2,2
leftNSET, 6,6
rightNSET, 1,1,1.200e+01 
rightNSET, 2,2
rightNSET, 6,6
lowerNSET, 2,2,-1.200e+01 
lowerNSET, 1,1
lowerNSET, 6,6
upperNSET, 2,2,1.200e+01 
upperNSET, 1,1
upperNSET, 6,6
*Restart, write, frequency=0 
*Output, history, variable=PRESELECT
*Output, field, variable=PRESELECT
*NODE OUTPUT
U, RF,COORD
*ELEMENT Output
S,SE,SF,SM,SK,COORD
*End Step 
