*NODE 
1, 5.00000000000000e-01, 4.90000000000000e+01, 0.00000000000000e+00 
2, 1.00000000000000e+00, 1.35000000000000e+01, 0.00000000000000e+00 
3, 1.00000000000000e+00, 2.45000000000000e+01, 0.00000000000000e+00 
4, 1.00000000000000e+00, 4.85000000000000e+01, 0.00000000000000e+00 
5, 1.50000000000000e+00, 1.28750000000000e+01, 0.00000000000000e+00 
6, 1.50000000000000e+00, 1.95000000000000e+01, 0.00000000000000e+00 
7, 1.50000000000000e+00, 4.80000000000000e+01, 0.00000000000000e+00 
8, 1.66666666666667e+00, 2.50000000000000e+01, 0.00000000000000e+00 
9, 1.70000000000000e+00, 2.40000000000000e+01, 0.00000000000000e+00 
10, 1.75000000000000e+00, 1.38750000000000e+01, 0.00000000000000e+00 
11, 2.00000000000000e+00, 1.22500000000000e+01, 0.00000000000000e+00 
12, 2.00000000000000e+00, 4.75000000000000e+01, 0.00000000000000e+00 
13, 2.25000000000000e+00, 1.88750000000000e+01, 0.00000000000000e+00 
14, 2.25000000000000e+00, 2.01250000000000e+01, 0.00000000000000e+00 
15, 2.33333333333333e+00, 2.55000000000000e+01, 0.00000000000000e+00 
16, 2.40000000000000e+00, 2.35000000000000e+01, 0.00000000000000e+00 
17, 2.50000000000000e+00, 7.00000000000000e+00, 0.00000000000000e+00 
18, 2.50000000000000e+00, 1.16250000000000e+01, 0.00000000000000e+00 
19, 2.50000000000000e+00, 1.42500000000000e+01, 0.00000000000000e+00 
20, 2.50000000000000e+00, 3.25000000000000e+01, 0.00000000000000e+00 
** ... 745 like lines cut
*NSET, NSET = leftNSET 
2, 3, 5, 6, 8, 9, 10, 11, 
13, 14, 15, 16, 17, 18, 19, 20, 
21, 22, 23, 25, 26, 27, 28, 29, 
30, 31, 32, 33, 34, 36, 37
*NSET, NSET = rightNSET 
727, 728, 729, 730, 731, 732, 733, 735, 
736, 737, 738, 741, 742, 743, 744, 746, 
747, 750, 751, 752, 753, 754, 755, 756, 
758, 759, 760, 761, 762, 764, 765
*NSET, NSET = lowerNSET 
35, 49, 57, 70, 80, 113, 121, 126, 
137, 144, 157, 169, 187, 202, 216, 227, 
242, 250, 349, 364, 375, 386, 396, 407, 
454, 469, 484, 503, 524, 540, 557, 574, 
588, 695, 696, 702, 705, 734, 739, 740, 
745, 748, 749, 757, 763
*NSET, NSET = upperNSET 
1, 4, 7, 12, 24, 40, 56, 76, 
88, 89, 103, 111, 197, 272, 279, 295, 
316, 321, 330, 344, 357, 367, 374, 404, 
414, 425, 435, 437, 443, 447, 461, 480, 
502, 599, 604, 609, 655, 665, 676, 685, 
693, 700, 706, 710
*ELEMENT, TYPE=B21, ELSET=BeamElem3 
1, 130, 122 
2, 122, 115 
3, 115, 104 
4, 104, 81 
5, 130, 131 
6, 131, 132 
7, 132, 133 
8, 203, 218 
9, 218, 229 
10, 229, 247 
11, 247, 259 
12, 259, 269 
13, 147, 159 
14, 159, 175 
15, 175, 194 
16, 194, 214 
17, 214, 226 
18, 226, 246 
19, 246, 260 
20, 260, 273 
** ... 781 like lines cut
*NORMAL,TYPE=ELEMENT
1, 130, 0.500000, -3.000000, 0.000000 
2, 122, 0.500000, -3.000000, 0.000000 
3, 115, 0.500000, -3.000000, 0.000000 
4, 104, 0.500000, -3.000000, 0.000000 
5, 130, -2.500000, 0.000000, 0.000000 
6, 131, -2.500000, 0.000000, 0.000000 
7, 132, -2.500000, 0.000000, 0.000000 
8, 203, 2.000000, 3.500000, 0.000000 
9, 218, 2.000000, 3.500000, 0.000000 
10, 229, 2.000000, 3.500000, 0.000000 
11, 247, 2.000000, 3.500000, 0.000000 
12, 259, 2.000000, 3.500000, 0.000000 
13, 147, 1.500000, 5.000000, 0.000000 
14, 159, 1.500000, 5.000000, 0.000000 
15, 175, 1.500000, 5.000000, 0.000000 
16, 194, 1.500000, 5.000000, 0.000000 
17, 214, 1.500000, 5.000000, 0.000000 
18, 226, 1.500000, 5.000000, 0.000000 
19, 246, 1.500000, 2.500000, 0.000000 
20, 260, 1.500000, 2.500000, 0.000000 
** ... 781 like lines cut
*BEAM SECTION, ELSET=BeamElem3, MATERIAL=BeamMatl, SECTION=CIRC 
1.0000000e+00 
0.000000, 0.000000, -1.000000 
*MATERIAL, name=BeamMatl 
*Elastic 
1.00000e+02, 4.50000e-01 
*Step, name=Step-3, nlgeom=YES 
*Static, STABILIZE=2.0000e-04
1.00e-02, 1., 1.00e-05, 1.00e+00 
*Boundary 
leftNSET, 1,1,-3.031e+00 
leftNSET, 2,2
leftNSET, 6,6
rightNSET, 1,1,3.031e+00 
rightNSET, 2,2
rightNSET, 6,6
lowerNSET, 2,2,-3.031e+00 
lowerNSET, 1,1
lowerNSET, 6,6
upperNSET, 2,2,3.031e+00 
upperNSET, 1,1
upperNSET, 6,6
*Restart, write, frequency=0 
*Output, history, variable=PRESELECT
*Output, field, variable=PRESELECT
*NODE OUTPUT
U, RF,COORD
*ELEMENT Output
S,SE,SF,SM,SK,COORD
*End Step 
